<?xml version="1.0" encoding="UTF-8"?>

<!-- generated on 2024-05-06 20:58:41 by Eclipse SUMO sumo Version 1.19.0
-->

<configuration xmlns:xsi="http://www.w3.org/2001/XMLSchema-instance" xsi:noNamespaceSchemaLocation="http://sumo.dlr.de/xsd/sumoConfiguration.xsd">

    <input>
        <net-file value="gothamcity.net.xml"/>
		<route-files value="gothamcity.rou.xml"/>
		<additional-files value="gothamcity.add.xml"/>
    </input>
	
	<battery>
        <device.battery.probability value="1"/>
    </battery>

</configuration>
