<?xml version="1.0" encoding="UTF-8"?>

<!-- generated on 2024-05-06 20:16:13 by Eclipse SUMO netedit Version 1.19.0
<configuration xmlns:xsi="http://www.w3.org/2001/XMLSchema-instance" xsi:noNamespaceSchemaLocation="http://sumo.dlr.de/xsd/neteditConfiguration.xsd">

    <input>
        <sumo-net-file value="C:\Users\gurkan\Desktop\Sumo1.1\gothamcity.net.xml"/>
    </input>

    <processing>
        <geometry.min-radius.fix.railways value="false"/>
        <geometry.max-grade.fix value="false"/>
        <offset.disable-normalization value="true"/>
        <lefthand value="0"/>
    </processing>

    <junctions>
        <no-turnarounds value="true"/>
        <junctions.corner-detail value="5"/>
        <junctions.limit-turn-speed value="5.50"/>
        <rectangular-lane-cut value="0"/>
    </junctions>

    <pedestrian>
        <walkingareas value="0"/>
    </pedestrian>

</configuration>
-->

<edges version="1.16" xmlns:xsi="http://www.w3.org/2001/XMLSchema-instance" xsi:noNamespaceSchemaLocation="http://sumo.dlr.de/xsd/edges_file.xsd">
    <edge id="-E0" from="J1" to="J0" priority="-1" numLanes="1" speed="13.89"/>
    <edge id="-E1" from="J2" to="J1" priority="-1" numLanes="1" speed="13.89"/>
    <edge id="-E10" from="J10" to="J0" priority="-1" numLanes="1" speed="13.89"/>
    <edge id="-E11" from="J11" to="J2" priority="-1" numLanes="1" speed="13.89"/>
    <edge id="-E12" from="J12" to="J2" priority="-1" numLanes="1" speed="13.89"/>
    <edge id="-E13" from="J14" to="J12" priority="-1" numLanes="1" speed="13.89"/>
    <edge id="-E14" from="J15" to="J14" priority="-1" numLanes="1" speed="13.89"/>
    <edge id="-E15" from="J16" to="J14" priority="-1" numLanes="1" speed="13.89"/>
    <edge id="-E16" from="J17" to="J16" priority="-1" numLanes="1" speed="13.89"/>
    <edge id="-E17" from="J18" to="J15" priority="-1" numLanes="1" speed="13.89"/>
    <edge id="-E18" from="J19" to="J11" priority="-1" numLanes="1" speed="13.89"/>
    <edge id="-E19" from="J20" to="J19" priority="-1" numLanes="1" speed="13.89"/>
    <edge id="-E2" from="J3" to="J1" priority="-1" numLanes="1" speed="13.89"/>
    <edge id="-E20" from="J21" to="J7" priority="-1" numLanes="1" speed="13.89"/>
    <edge id="-E21" from="J22" to="J9" priority="-1" numLanes="1" speed="13.89"/>
    <edge id="-E22" from="J23" to="J20" priority="-1" numLanes="1" speed="13.89"/>
    <edge id="-E23" from="J24" to="J11" priority="-1" numLanes="1" speed="13.89"/>
    <edge id="-E24" from="J25" to="J19" priority="-1" numLanes="1" speed="13.89"/>
    <edge id="-E25" from="J26" to="J20" priority="-1" numLanes="1" speed="13.89"/>
    <edge id="-E26" from="J27" to="J20" priority="-1" numLanes="1" speed="13.89"/>
    <edge id="-E27" from="J28" to="J27" priority="-1" numLanes="1" speed="13.89"/>
    <edge id="-E28" from="J29" to="J28" priority="-1" numLanes="1" speed="13.89"/>
    <edge id="-E29" from="J27" to="J16" priority="-1" numLanes="1" speed="13.89"/>
    <edge id="-E3" from="J4" to="J2" priority="-1" numLanes="1" speed="13.89"/>
    <edge id="-E30" from="J24" to="J22" priority="-1" numLanes="1" speed="13.89"/>
    <edge id="-E31" from="J30" to="J24" priority="-1" numLanes="1" speed="13.89"/>
    <edge id="-E32" from="J31" to="J27" priority="-1" numLanes="1" speed="13.89"/>
    <edge id="-E33" from="J32" to="J31" priority="-1" numLanes="1" speed="13.89"/>
    <edge id="-E34" from="J33" to="J32" priority="-1" numLanes="1" speed="13.89"/>
    <edge id="-E35" from="J34" to="J17" priority="-1" numLanes="1" speed="13.89"/>
    <edge id="-E36" from="J35" to="J19" priority="-1" numLanes="1" speed="13.89"/>
    <edge id="-E37" from="J26" to="J35" priority="-1" numLanes="1" speed="13.89"/>
    <edge id="-E38" from="J36" to="J35" priority="-1" numLanes="1" speed="13.89"/>
    <edge id="-E39" from="J37" to="J26" priority="-1" numLanes="1" speed="13.89"/>
    <edge id="-E4" from="J4" to="J5" priority="-1" numLanes="1" speed="13.89"/>
    <edge id="-E40" from="J38" to="J14" priority="-1" numLanes="1" speed="13.89"/>
    <edge id="-E5" from="J6" to="J1" priority="-1" numLanes="1" speed="13.89"/>
    <edge id="-E6" from="J7" to="J6" priority="-1" numLanes="1" speed="13.89"/>
    <edge id="-E7" from="J8" to="J7" priority="-1" numLanes="1" speed="13.89"/>
    <edge id="-E8" from="J9" to="J8" priority="-1" numLanes="1" speed="13.89"/>
    <edge id="-E9" from="J0" to="J8" priority="-1" numLanes="1" speed="13.89"/>
    <edge id="E0" from="J0" to="J1" priority="-1" numLanes="1" speed="13.89"/>
    <edge id="E1" from="J1" to="J2" priority="-1" numLanes="1" speed="13.89"/>
    <edge id="E10" from="J0" to="J10" priority="-1" numLanes="1" speed="13.89"/>
    <edge id="E11" from="J2" to="J11" priority="-1" numLanes="1" speed="13.89"/>
    <edge id="E12" from="J2" to="J12" priority="-1" numLanes="1" speed="13.89"/>
    <edge id="E13" from="J12" to="J14" priority="-1" numLanes="1" speed="13.89"/>
    <edge id="E14" from="J14" to="J15" priority="-1" numLanes="1" speed="13.89"/>
    <edge id="E15" from="J14" to="J16" priority="-1" numLanes="1" speed="13.89"/>
    <edge id="E16" from="J16" to="J17" priority="-1" numLanes="1" speed="13.89"/>
    <edge id="E17" from="J15" to="J18" priority="-1" numLanes="1" speed="13.89"/>
    <edge id="E18" from="J11" to="J19" priority="-1" numLanes="1" speed="13.89"/>
    <edge id="E19" from="J19" to="J20" priority="-1" numLanes="1" speed="13.89"/>
    <edge id="E2" from="J1" to="J3" priority="-1" numLanes="1" speed="13.89"/>
    <edge id="E20" from="J7" to="J21" priority="-1" numLanes="1" speed="13.89"/>
    <edge id="E21" from="J9" to="J22" priority="-1" numLanes="1" speed="13.89"/>
    <edge id="E22" from="J20" to="J23" priority="-1" numLanes="1" speed="13.89"/>
    <edge id="E23" from="J11" to="J24" priority="-1" numLanes="1" speed="13.89"/>
    <edge id="E24" from="J19" to="J25" priority="-1" numLanes="1" speed="13.89"/>
    <edge id="E25" from="J20" to="J26" priority="-1" numLanes="1" speed="13.89"/>
    <edge id="E26" from="J20" to="J27" priority="-1" numLanes="1" speed="13.89"/>
    <edge id="E27" from="J27" to="J28" priority="-1" numLanes="1" speed="13.89"/>
    <edge id="E28" from="J28" to="J29" priority="-1" numLanes="1" speed="13.89"/>
    <edge id="E29" from="J16" to="J27" priority="-1" numLanes="1" speed="13.89"/>
    <edge id="E3" from="J2" to="J4" priority="-1" numLanes="1" speed="13.89"/>
    <edge id="E30" from="J22" to="J24" priority="-1" numLanes="1" speed="13.89"/>
    <edge id="E31" from="J24" to="J30" priority="-1" numLanes="1" speed="13.89"/>
    <edge id="E32" from="J27" to="J31" priority="-1" numLanes="1" speed="13.89"/>
    <edge id="E33" from="J31" to="J32" priority="-1" numLanes="1" speed="13.89"/>
    <edge id="E34" from="J32" to="J33" priority="-1" numLanes="1" speed="13.89"/>
    <edge id="E35" from="J17" to="J34" priority="-1" numLanes="1" speed="13.89"/>
    <edge id="E36" from="J19" to="J35" priority="-1" numLanes="1" speed="13.89"/>
    <edge id="E37" from="J35" to="J26" priority="-1" numLanes="1" speed="13.89"/>
    <edge id="E38" from="J35" to="J36" priority="-1" numLanes="1" speed="13.89"/>
    <edge id="E39" from="J26" to="J37" priority="-1" numLanes="1" speed="13.89"/>
    <edge id="E4" from="J5" to="J4" priority="-1" numLanes="1" speed="13.89"/>
    <edge id="E40" from="J14" to="J38" priority="-1" numLanes="1" speed="13.89"/>
    <edge id="E5" from="J1" to="J6" priority="-1" numLanes="1" speed="13.89"/>
    <edge id="E6" from="J6" to="J7" priority="-1" numLanes="1" speed="13.89"/>
    <edge id="E7" from="J7" to="J8" priority="-1" numLanes="1" speed="13.89"/>
    <edge id="E8" from="J8" to="J9" priority="-1" numLanes="1" speed="13.89"/>
    <edge id="E9" from="J8" to="J0" priority="-1" numLanes="1" speed="13.89"/>
</edges>
