<?xml version="1.0" encoding="UTF-8"?>

<!-- generated on 2024-06-03 17:52:02 by Eclipse SUMO netedit Version 1.19.0
<configuration xmlns:xsi="http://www.w3.org/2001/XMLSchema-instance" xsi:noNamespaceSchemaLocation="http://sumo.dlr.de/xsd/neteditConfiguration.xsd">

    <input>
        <sumocfg-file value="C:\Users\gurkan\Desktop\Sumo1.1\gothamcity.sumocfg"/>
        <additional-files value="C:\Users\gurkan\Desktop\Sumo1.1\gothamcity.add.xml"/>
        <route-files value="C:\Users\gurkan\Desktop\Sumo1.1\gothamcity.rou.xml"/>
        <sumo-net-file value="C:\Users\gurkan\Desktop\Sumo1.1\gothamcity.net.xml"/>
    </input>

    <output>
        <output-file value="C:\Users\gurkan\Desktop\Sumo1.1\gothamcity.net.xml"/>
    </output>

    <processing>
        <geometry.min-radius.fix.railways value="false"/>
        <geometry.max-grade.fix value="false"/>
        <offset.disable-normalization value="true"/>
        <lefthand value="0"/>
    </processing>

    <junctions>
        <no-turnarounds value="true"/>
        <junctions.corner-detail value="5"/>
        <junctions.limit-turn-speed value="5.50"/>
        <rectangular-lane-cut value="0"/>
    </junctions>

    <pedestrian>
        <walkingareas value="0"/>
    </pedestrian>

    <netedit>
        <ignore.routeelements value="false"/>
    </netedit>

</configuration>
-->

<net version="1.16" junctionCornerDetail="5" limitTurnSpeed="5.50" xmlns:xsi="http://www.w3.org/2001/XMLSchema-instance" xsi:noNamespaceSchemaLocation="http://sumo.dlr.de/xsd/net_file.xsd">

    <location netOffset="0.00,0.00" convBoundary="-204.38,-327.09,358.33,175.07" origBoundary="-10000000000.00,-10000000000.00,10000000000.00,10000000000.00" projParameter="!"/>

    <edge id=":J0_0" function="internal">
        <lane id=":J0_0_0" index="0" speed="13.89" length="16.93" shape="-10.13,75.81 -14.01,74.70 -18.04,72.90 -21.86,70.67 -25.12,68.26"/>
    </edge>
    <edge id=":J0_1" function="internal">
        <lane id=":J0_1_0" index="0" speed="8.20" length="4.57" shape="-10.13,75.81 -13.90,74.43 -14.28,74.02"/>
    </edge>
    <edge id=":J0_6" function="internal">
        <lane id=":J0_6_0" index="0" speed="8.20" length="11.21" shape="-14.28,74.02 -16.21,71.95 -17.04,68.37 -16.41,63.70"/>
    </edge>
    <edge id=":J0_2" function="internal">
        <lane id=":J0_2_0" index="0" speed="6.75" length="10.35" shape="-13.31,64.52 -13.78,67.69 -13.30,70.10 -11.89,71.76 -9.55,72.66"/>
    </edge>
    <edge id=":J0_3" function="internal">
        <lane id=":J0_3_0" index="0" speed="7.45" length="16.28" shape="-13.31,64.52 -15.15,68.96 -17.74,71.06 -21.06,70.83 -25.12,68.26"/>
    </edge>
    <edge id=":J0_4" function="internal">
        <lane id=":J0_4_0" index="0" speed="5.76" length="9.17" shape="-23.06,65.81 -20.77,67.26 -18.90,67.39 -17.44,66.21 -16.41,63.70"/>
    </edge>
    <edge id=":J0_5" function="internal">
        <lane id=":J0_5_0" index="0" speed="13.89" length="15.30" shape="-23.06,65.81 -20.03,68.11 -16.71,70.10 -13.20,71.66 -9.55,72.66"/>
    </edge>
    <edge id=":J1_0" function="internal">
        <lane id=":J1_0_0" index="0" speed="5.79" length="9.15" shape="68.89,99.51 66.56,98.16 64.68,98.10 63.23,99.31 62.23,101.80"/>
    </edge>
    <edge id=":J1_1" function="internal">
        <lane id=":J1_1_0" index="0" speed="13.89" length="15.65" shape="68.89,99.51 65.77,97.24 62.41,95.11 58.91,93.24 55.37,91.73"/>
    </edge>
    <edge id=":J1_2" function="internal">
        <lane id=":J1_2_0" index="0" speed="9.97" length="16.31" shape="68.89,99.51 65.59,96.31 63.59,92.86 62.88,89.17 63.48,85.25"/>
    </edge>
    <edge id=":J1_3" function="internal">
        <lane id=":J1_3_0" index="0" speed="8.76" length="12.43" shape="66.54,86.19 66.12,89.11 66.70,91.88 68.28,94.51 70.86,96.99"/>
    </edge>
    <edge id=":J1_4" function="internal">
        <lane id=":J1_4_0" index="0" speed="13.89" length="16.20" shape="66.54,86.19 62.23,101.80"/>
    </edge>
    <edge id=":J1_5" function="internal">
        <lane id=":J1_5_0" index="0" speed="7.91" length="3.97" shape="66.54,86.19 64.84,89.78"/>
    </edge>
    <edge id=":J1_12" function="internal">
        <lane id=":J1_12_0" index="0" speed="7.91" length="10.42" shape="64.84,89.78 62.41,91.90 59.26,92.55 55.37,91.73"/>
    </edge>
    <edge id=":J1_6" function="internal">
        <lane id=":J1_6_0" index="0" speed="6.40" length="9.04" shape="56.47,88.73 58.91,89.24 60.89,88.83 62.41,87.50 63.48,85.25"/>
    </edge>
    <edge id=":J1_7" function="internal">
        <lane id=":J1_7_0" index="0" speed="13.89" length="16.65" shape="56.47,88.73 60.14,90.31 63.95,92.35 67.61,94.64 70.86,96.99"/>
    </edge>
    <edge id=":J1_8" function="internal">
        <lane id=":J1_8_0" index="0" speed="8.78" length="15.92" shape="56.47,88.73 59.93,90.68 62.04,93.51 62.81,97.22 62.23,101.80"/>
    </edge>
    <edge id=":J1_9" function="internal">
        <lane id=":J1_9_0" index="0" speed="7.44" length="11.15" shape="59.13,101.03 59.57,97.72 59.09,95.07 57.69,93.08 55.37,91.73"/>
    </edge>
    <edge id=":J1_10" function="internal">
        <lane id=":J1_10_0" index="0" speed="13.89" length="16.37" shape="59.13,101.03 63.48,85.25"/>
    </edge>
    <edge id=":J1_11" function="internal">
        <lane id=":J1_11_0" index="0" speed="7.47" length="4.85" shape="59.13,101.03 60.89,96.63 60.98,96.56"/>
    </edge>
    <edge id=":J1_13" function="internal">
        <lane id=":J1_13_0" index="0" speed="7.47" length="11.27" shape="60.98,96.56 63.44,94.50 66.76,94.61 70.86,96.99"/>
    </edge>
    <edge id=":J10_0" function="internal">
        <lane id=":J10_0_0" index="0" speed="6.11" length="6.80" shape="8.73,-35.12 10.26,-34.14 11.22,-32.88 11.58,-31.35 11.37,-29.54"/>
    </edge>
    <edge id=":J10_1" function="internal">
        <lane id=":J10_1_0" index="0" speed="3.92" length="2.27" shape="8.27,-30.35 8.34,-30.95 8.22,-31.46 7.90,-31.88 7.39,-32.21"/>
    </edge>
    <edge id=":J100_0" function="internal">
        <lane id=":J100_0_0" index="0" speed="13.89" length="8.99" shape="176.88,-15.29 171.36,-22.39"/>
    </edge>
    <edge id=":J100_1" function="internal">
        <lane id=":J100_1_0" index="0" speed="7.28" length="7.87" shape="173.81,-24.45 175.17,-23.27 176.84,-22.62 178.81,-22.51 181.07,-22.94"/>
    </edge>
    <edge id=":J100_2" function="internal">
        <lane id=":J100_2_0" index="0" speed="13.89" length="9.24" shape="173.81,-24.45 179.48,-17.15"/>
    </edge>
    <edge id=":J100_3" function="internal">
        <lane id=":J100_3_0" index="0" speed="7.22" length="7.95" shape="171.37,-14.91 172.27,-17.11 172.56,-19.08 172.26,-20.84 171.36,-22.39"/>
    </edge>
    <edge id=":J101_0" function="internal">
        <lane id=":J101_0_0" index="0" speed="6.62" length="8.95" shape="191.51,8.32 190.39,6.24 188.82,4.99 186.80,4.55 184.31,4.92"/>
    </edge>
    <edge id=":J101_1" function="internal">
        <lane id=":J101_1_0" index="0" speed="13.89" length="11.52" shape="191.51,8.32 190.41,5.30 189.41,2.95 188.18,0.71 186.39,-1.94"/>
    </edge>
    <edge id=":J101_2" function="internal">
        <lane id=":J101_2_0" index="0" speed="10.64" length="11.82" shape="195.73,-4.15 194.44,-1.30 193.81,1.55 193.84,4.40 194.52,7.24"/>
    </edge>
    <edge id=":J101_3" function="internal">
        <lane id=":J101_3_0" index="0" speed="13.89" length="12.40" shape="189.00,-3.80 190.85,-1.02 192.22,1.48 193.36,4.10 194.52,7.24"/>
    </edge>
    <edge id=":J102_0" function="internal">
        <lane id=":J102_0_0" index="0" speed="3.97" length="1.89" shape="187.15,-24.68 187.64,-24.75 188.08,-24.69 188.48,-24.49 188.84,-24.14"/>
    </edge>
    <edge id=":J103_0" function="internal">
        <lane id=":J103_0_0" index="0" speed="3.97" length="1.92" shape="198.85,-11.67 199.11,-11.24 199.22,-10.80 199.18,-10.35 198.99,-9.88"/>
    </edge>
    <edge id=":J104_0" function="internal">
        <lane id=":J104_0_0" index="0" speed="3.98" length="1.87" shape="177.88,6.78 177.40,6.85 176.96,6.79 176.56,6.59 176.21,6.26"/>
    </edge>
    <edge id=":J105_0" function="internal">
        <lane id=":J105_0_0" index="0" speed="3.97" length="1.88" shape="167.16,-4.71 166.89,-5.13 166.77,-5.56 166.80,-6.01 166.97,-6.47"/>
    </edge>
    <edge id=":J106_0" function="internal">
        <lane id=":J106_0_0" index="0" speed="7.07" length="8.14" shape="336.74,-51.22 334.35,-51.07 332.43,-50.43 331.00,-49.30 330.04,-47.67"/>
    </edge>
    <edge id=":J106_1" function="internal">
        <lane id=":J106_1_0" index="0" speed="13.89" length="9.87" shape="334.11,-56.65 332.75,-54.06 331.87,-52.26 331.10,-50.41 330.04,-47.67"/>
    </edge>
    <edge id=":J106_2" function="internal">
        <lane id=":J106_2_0" index="0" speed="9.52" length="9.66" shape="327.05,-48.82 327.56,-50.94 327.51,-53.19 326.90,-55.57 325.73,-58.08"/>
    </edge>
    <edge id=":J106_3" function="internal">
        <lane id=":J106_3_0" index="0" speed="13.89" length="10.26" shape="327.05,-48.82 328.14,-51.62 328.96,-53.58 329.88,-55.49 331.28,-58.15"/>
    </edge>
    <edge id=":J107_0" function="internal">
        <lane id=":J107_0_0" index="0" speed="7.48" length="7.61" shape="347.02,-81.10 346.53,-79.54 346.59,-77.83 347.19,-75.98 348.34,-73.97"/>
    </edge>
    <edge id=":J107_1" function="internal">
        <lane id=":J107_1_0" index="0" speed="13.89" length="8.53" shape="347.02,-81.10 343.07,-73.54"/>
    </edge>
    <edge id=":J107_2" function="internal">
        <lane id=":J107_2_0" index="0" speed="7.59" length="7.72" shape="337.51,-79.41 339.86,-79.67 341.75,-80.29 343.19,-81.25 344.18,-82.56"/>
    </edge>
    <edge id=":J107_3" function="internal">
        <lane id=":J107_3_0" index="0" speed="13.89" length="8.49" shape="340.25,-75.04 344.18,-82.56"/>
    </edge>
    <edge id=":J108_0" function="internal">
        <lane id=":J108_0_0" index="0" speed="3.97" length="1.89" shape="352.66,-67.64 352.89,-67.20 352.97,-66.76 352.90,-66.31 352.68,-65.87"/>
    </edge>
    <edge id=":J109_0" function="internal">
        <lane id=":J109_0_0" index="0" speed="4.03" length="1.65" shape="343.49,-51.75 343.22,-51.42 342.89,-51.19 342.52,-51.05 342.09,-51.02"/>
    </edge>
    <edge id=":J11_0" function="internal">
        <lane id=":J11_0_0" index="0" speed="12.56" length="11.80" shape="16.38,-81.97 14.47,-84.55 12.44,-86.18 10.01,-87.31 6.90,-88.43"/>
    </edge>
    <edge id=":J11_1" function="internal">
        <lane id=":J11_1_0" index="0" speed="13.89" length="13.89" shape="16.38,-81.97 14.90,-85.18 14.17,-88.45 14.02,-91.84 14.24,-95.44"/>
    </edge>
    <edge id=":J11_2" function="internal">
        <lane id=":J11_2_0" index="0" speed="13.48" length="11.94" shape="17.43,-95.16 17.14,-91.86 17.14,-89.13 17.71,-86.53 19.12,-83.62"/>
    </edge>
    <edge id=":J11_3" function="internal">
        <lane id=":J11_3_0" index="0" speed="7.62" length="3.96" shape="17.43,-95.16 16.51,-91.30"/>
    </edge>
    <edge id=":J11_6" function="internal">
        <lane id=":J11_6_0" index="0" speed="7.62" length="11.30" shape="16.51,-91.30 16.42,-90.93 14.34,-88.40 11.16,-87.56 6.90,-88.43"/>
    </edge>
    <edge id=":J11_4" function="internal">
        <lane id=":J11_4_0" index="0" speed="6.03" length="9.07" shape="7.98,-91.45 10.51,-90.93 12.40,-91.42 13.64,-92.93 14.24,-95.44"/>
    </edge>
    <edge id=":J11_5" function="internal">
        <lane id=":J11_5_0" index="0" speed="13.60" length="13.90" shape="7.98,-91.45 11.34,-90.12 14.35,-88.51 16.96,-86.41 19.12,-83.62"/>
    </edge>
    <edge id=":J110_0" function="internal">
        <lane id=":J110_0_0" index="0" speed="4.07" length="1.51" shape="323.07,-62.80 322.91,-63.16 322.85,-63.52 322.88,-63.89 323.01,-64.26"/>
    </edge>
    <edge id=":J111_0" function="internal">
        <lane id=":J111_0_0" index="0" speed="4.00" length="1.77" shape="329.46,-78.25 329.70,-78.64 330.01,-78.93 330.40,-79.11 330.85,-79.18"/>
    </edge>
    <edge id=":J112_0" function="internal">
        <lane id=":J112_0_0" index="0" speed="4.02" length="1.67" shape="256.17,-265.12 256.48,-264.83 256.70,-264.49 256.81,-264.10 256.81,-263.67"/>
    </edge>
    <edge id=":J113_0" function="internal">
        <lane id=":J113_0_0" index="0" speed="13.89" length="7.01" shape="132.32,-6.76 131.75,-4.76 131.42,-3.38 131.17,-1.97 130.86,0.08"/>
    </edge>
    <edge id=":J113_1" function="internal">
        <lane id=":J113_1_0" index="0" speed="8.32" length="7.06" shape="124.05,-3.14 126.05,-4.19 127.59,-5.29 128.65,-6.44 129.24,-7.65"/>
    </edge>
    <edge id=":J113_2" function="internal">
        <lane id=":J113_2_0" index="0" speed="13.89" length="7.43" shape="127.70,-0.39 128.03,-2.57 128.29,-4.06 128.64,-5.53 129.24,-7.65"/>
    </edge>
    <edge id=":J114_0" function="internal">
        <lane id=":J114_0_0" index="0" speed="4.07" length="1.53" shape="113.79,21.71 113.54,21.41 113.37,21.08 113.29,20.72 113.31,20.33"/>
    </edge>
    <edge id=":J115_0" function="internal">
        <lane id=":J115_0_0" index="0" speed="4.04" length="1.61" shape="115.99,1.36 116.09,0.95 116.28,0.61 116.55,0.34 116.91,0.12"/>
    </edge>
    <edge id=":J116_0" function="internal">
        <lane id=":J116_0_0" index="0" speed="6.71" length="8.44" shape="-99.53,-254.05 -101.64,-253.64 -103.24,-252.59 -104.34,-250.92 -104.92,-248.62"/>
    </edge>
    <edge id=":J116_1" function="internal">
        <lane id=":J116_1_0" index="0" speed="13.89" length="10.02" shape="-99.53,-254.05 -109.54,-253.63"/>
    </edge>
    <edge id=":J116_2" function="internal">
        <lane id=":J116_2_0" index="0" speed="13.89" length="10.04" shape="-109.68,-256.82 -99.65,-257.24"/>
    </edge>
    <edge id=":J116_3" function="internal">
        <lane id=":J116_3_0" index="0" speed="6.76" length="2.52" shape="-109.68,-256.82 -107.20,-256.41"/>
    </edge>
    <edge id=":J116_4" function="internal">
        <lane id=":J116_4_0" index="0" speed="6.76" length="8.61" shape="-107.20,-256.41 -105.58,-254.90 -104.82,-252.31 -104.92,-248.62"/>
    </edge>
    <edge id=":J117_0" function="internal">
        <lane id=":J117_0_0" index="0" speed="7.68" length="7.33" shape="-126.46,-248.59 -127.71,-250.47 -129.03,-251.83 -130.44,-252.69 -131.93,-253.03"/>
    </edge>
    <edge id=":J117_1" function="internal">
        <lane id=":J117_1_0" index="0" speed="13.89" length="7.90" shape="-124.03,-252.98 -126.38,-252.88 -127.98,-252.85 -129.59,-252.90 -131.93,-253.03"/>
    </edge>
    <edge id=":J117_2" function="internal">
        <lane id=":J117_2_0" index="0" speed="13.89" length="7.58" shape="-131.75,-256.22 -129.50,-256.10 -127.96,-256.06 -126.42,-256.08 -124.18,-256.17"/>
    </edge>
    <edge id=":J119_0" function="internal">
        <lane id=":J119_0_0" index="0" speed="3.93" length="2.24" shape="-105.40,-244.89 -105.55,-244.31 -105.85,-243.88 -106.29,-243.61 -106.88,-243.49"/>
    </edge>
    <edge id=":J12_0" function="internal">
        <lane id=":J12_0_0" index="0" speed="5.53" length="11.24" shape="109.06,-135.45 107.26,-138.86 105.81,-139.86 104.71,-138.48 103.97,-134.70"/>
    </edge>
    <edge id=":J12_1" function="internal">
        <lane id=":J12_1_0" index="0" speed="6.55" length="16.09" shape="109.06,-135.45 108.48,-139.86 110.16,-143.37 113.37,-145.05 117.37,-143.99"/>
    </edge>
    <edge id=":J12_2" function="internal">
        <lane id=":J12_2_0" index="0" speed="5.65" length="11.50" shape="115.60,-141.32 112.44,-142.98 110.79,-142.76 110.64,-140.68 112.00,-136.72"/>
    </edge>
    <edge id=":J12_3" function="internal">
        <lane id=":J12_3_0" index="0" speed="7.70" length="17.77" shape="115.60,-141.32 111.08,-143.42 107.63,-143.02 105.26,-140.11 103.97,-134.70"/>
    </edge>
    <edge id=":J12_4" function="internal">
        <lane id=":J12_4_0" index="0" speed="9.04" length="25.04" shape="100.79,-135.06 102.61,-142.56 105.98,-146.56 110.90,-147.03 117.37,-143.99"/>
    </edge>
    <edge id=":J12_5" function="internal">
        <lane id=":J12_5_0" index="0" speed="6.35" length="3.58" shape="100.79,-135.06 102.28,-138.31"/>
    </edge>
    <edge id=":J12_6" function="internal">
        <lane id=":J12_6_0" index="0" speed="6.35" length="11.84" shape="102.28,-138.31 102.49,-138.77 105.73,-140.40 109.30,-139.78 112.00,-136.72"/>
    </edge>
    <edge id=":J120_0" function="internal">
        <lane id=":J120_0_0" index="0" speed="3.99" length="1.80" shape="-121.96,-242.49 -122.43,-242.52 -122.84,-242.66 -123.18,-242.92 -123.46,-243.30"/>
    </edge>
    <edge id=":J121_0" function="internal">
        <lane id=":J121_0_0" index="0" speed="6.84" length="8.20" shape="303.87,156.04 302.00,156.79 300.65,158.07 299.83,159.87 299.52,162.19"/>
    </edge>
    <edge id=":J121_1" function="internal">
        <lane id=":J121_1_0" index="0" speed="13.89" length="9.55" shape="303.87,156.04 294.57,158.18"/>
    </edge>
    <edge id=":J121_2" function="internal">
        <lane id=":J121_2_0" index="0" speed="13.89" length="9.55" shape="293.85,155.06 303.15,152.92"/>
    </edge>
    <edge id=":J121_3" function="internal">
        <lane id=":J121_3_0" index="0" speed="6.57" length="2.53" shape="293.85,155.06 296.38,155.01"/>
    </edge>
    <edge id=":J121_4" function="internal">
        <lane id=":J121_4_0" index="0" speed="6.57" length="8.39" shape="296.38,155.01 298.17,156.18 299.22,158.57 299.52,162.19"/>
    </edge>
    <edge id=":J122_0" function="internal">
        <lane id=":J122_0_0" index="0" speed="6.94" length="7.89" shape="282.11,165.87 281.04,163.87 279.70,162.48 278.09,161.69 276.20,161.52"/>
    </edge>
    <edge id=":J122_1" function="internal">
        <lane id=":J122_1_0" index="0" speed="13.89" length="8.86" shape="284.97,160.38 282.40,160.94 280.63,161.22 278.83,161.36 276.20,161.52"/>
    </edge>
    <edge id=":J122_2" function="internal">
        <lane id=":J122_2_0" index="0" speed="13.89" length="8.35" shape="276.00,158.33 278.47,158.18 280.16,158.04 281.84,157.79 284.26,157.26"/>
    </edge>
    <edge id=":J123_0" function="internal">
        <lane id=":J123_0_0" index="0" speed="3.95" length="2.03" shape="299.47,165.56 299.39,166.09 299.17,166.52 298.82,166.85 298.33,167.07"/>
    </edge>
    <edge id=":J124_0" function="internal">
        <lane id=":J124_0_0" index="0" speed="3.91" length="2.42" shape="285.72,170.91 285.07,171.01 284.53,170.89 284.10,170.54 283.77,169.98"/>
    </edge>
    <edge id=":J13_0" function="internal">
        <lane id=":J13_0_0" index="0" speed="13.89" length="9.68" shape="38.94,-44.58 33.92,-52.86"/>
    </edge>
    <edge id=":J13_1" function="internal">
        <lane id=":J13_1_0" index="0" speed="7.23" length="7.79" shape="36.66,-54.51 37.80,-53.18 39.33,-52.32 41.25,-51.94 43.57,-52.03"/>
    </edge>
    <edge id=":J13_2" function="internal">
        <lane id=":J13_2_0" index="0" speed="13.89" length="9.66" shape="36.66,-54.51 41.67,-46.25"/>
    </edge>
    <edge id=":J13_3" function="internal">
        <lane id=":J13_3_0" index="0" speed="8.88" length="9.01" shape="33.75,-44.15 34.58,-46.71 34.88,-49.01 34.66,-51.06 33.92,-52.86"/>
    </edge>
    <edge id=":J14_0" function="internal">
        <lane id=":J14_0_0" index="0" speed="5.60" length="9.32" shape="150.18,-47.60 148.08,-49.53 146.31,-49.94 144.86,-48.85 143.73,-46.24"/>
    </edge>
    <edge id=":J14_1" function="internal">
        <lane id=":J14_1_0" index="0" speed="13.89" length="17.51" shape="150.18,-47.60 147.61,-50.86 144.95,-54.64 142.53,-58.56 140.66,-62.25"/>
    </edge>
    <edge id=":J14_2" function="internal">
        <lane id=":J14_2_0" index="0" speed="7.85" length="5.61" shape="150.18,-47.60 147.36,-51.94 147.28,-52.38"/>
    </edge>
    <edge id=":J14_12" function="internal">
        <lane id=":J14_12_0" index="0" speed="7.85" length="11.12" shape="147.28,-52.38 146.72,-55.61 148.28,-58.64 152.02,-61.01"/>
    </edge>
    <edge id=":J14_3" function="internal">
        <lane id=":J14_3_0" index="0" speed="6.31" length="10.36" shape="153.27,-58.06 151.10,-56.64 150.27,-54.76 150.78,-52.44 152.63,-49.66"/>
    </edge>
    <edge id=":J14_4" function="internal">
        <lane id=":J14_4_0" index="0" speed="11.92" length="15.70" shape="153.27,-58.06 150.06,-56.22 147.40,-53.63 145.29,-50.31 143.73,-46.24"/>
    </edge>
    <edge id=":J14_5" function="internal">
        <lane id=":J14_5_0" index="0" speed="8.26" length="15.11" shape="153.27,-58.06 149.05,-56.88 145.55,-57.18 142.75,-58.97 140.66,-62.25"/>
    </edge>
    <edge id=":J14_6" function="internal">
        <lane id=":J14_6_0" index="0" speed="6.82" length="9.98" shape="143.60,-63.51 144.95,-61.43 146.81,-60.32 149.16,-60.18 152.02,-61.01"/>
    </edge>
    <edge id=":J14_7" function="internal">
        <lane id=":J14_7_0" index="0" speed="13.89" length="16.58" shape="143.60,-63.51 145.39,-59.95 147.65,-56.30 150.14,-52.80 152.63,-49.66"/>
    </edge>
    <edge id=":J14_8" function="internal">
        <lane id=":J14_8_0" index="0" speed="13.89" length="3.42" shape="143.60,-63.51 144.47,-60.21"/>
    </edge>
    <edge id=":J14_13" function="internal">
        <lane id=":J14_13_0" index="0" speed="13.89" length="14.10" shape="144.47,-60.21 144.65,-59.55 144.93,-54.96 144.57,-50.32 143.73,-46.24"/>
    </edge>
    <edge id=":J14_9" function="internal">
        <lane id=":J14_9_0" index="0" speed="13.89" length="15.39" shape="140.66,-47.13 141.52,-50.87 141.92,-54.77 141.69,-58.62 140.66,-62.25"/>
    </edge>
    <edge id=":J14_10" function="internal">
        <lane id=":J14_10_0" index="0" speed="12.93" length="18.55" shape="140.66,-47.13 142.49,-51.87 144.99,-55.77 148.17,-58.81 152.02,-61.01"/>
    </edge>
    <edge id=":J14_11" function="internal">
        <lane id=":J14_11_0" index="0" speed="7.38" length="17.31" shape="140.66,-47.13 142.76,-51.97 145.45,-54.01 148.74,-53.24 152.63,-49.66"/>
    </edge>
    <edge id=":J15_0" function="internal">
        <lane id=":J15_0_0" index="0" speed="6.40" length="4.53" shape="205.84,38.99 206.11,40.12 206.11,41.22 205.83,42.28 205.28,43.31"/>
    </edge>
    <edge id=":J15_1" function="internal">
        <lane id=":J15_1_0" index="0" speed="4.07" length="1.51" shape="202.64,41.50 202.82,41.16 202.92,40.81 202.92,40.44 202.83,40.06"/>
    </edge>
    <edge id=":J16_0" function="internal">
        <lane id=":J16_0_0" index="0" speed="5.84" length="9.13" shape="249.96,-92.56 249.53,-95.19 248.39,-96.71 246.53,-97.13 243.96,-96.44"/>
    </edge>
    <edge id=":J16_1" function="internal">
        <lane id=":J16_1_0" index="0" speed="8.40" length="15.41" shape="249.96,-92.56 250.40,-97.08 251.95,-100.37 254.61,-102.43 258.39,-103.26"/>
    </edge>
    <edge id=":J16_2" function="internal">
        <lane id=":J16_2_0" index="0" speed="6.99" length="10.36" shape="258.55,-100.06 256.13,-99.49 254.42,-98.07 253.43,-95.78 253.15,-92.63"/>
    </edge>
    <edge id=":J16_3" function="internal">
        <lane id=":J16_3_0" index="0" speed="13.89" length="15.10" shape="258.55,-100.06 254.81,-99.67 251.11,-98.89 247.48,-97.79 243.96,-96.44"/>
    </edge>
    <edge id=":J16_4" function="internal">
        <lane id=":J16_4_0" index="0" speed="13.89" length="16.22" shape="242.71,-99.39 246.40,-100.78 250.40,-101.96 254.48,-102.82 258.39,-103.26"/>
    </edge>
    <edge id=":J16_5" function="internal">
        <lane id=":J16_5_0" index="0" speed="7.50" length="4.94" shape="242.71,-99.39 247.19,-100.58 247.49,-100.52"/>
    </edge>
    <edge id=":J16_6" function="internal">
        <lane id=":J16_6_0" index="0" speed="7.50" length="10.95" shape="247.49,-100.52 250.42,-99.86 252.41,-97.21 253.15,-92.63"/>
    </edge>
    <edge id=":J17_0" function="internal">
        <lane id=":J17_0_0" index="0" speed="12.97" length="20.93" shape="265.15,162.25 261.02,161.78 256.80,159.83 252.47,156.41 248.03,151.52"/>
    </edge>
    <edge id=":J17_1" function="internal">
        <lane id=":J17_1_0" index="0" speed="9.18" length="4.72" shape="265.15,162.25 261.20,161.55 260.68,161.07"/>
    </edge>
    <edge id=":J17_6" function="internal">
        <lane id=":J17_6_0" index="0" speed="9.18" length="14.87" shape="260.68,161.07 258.32,158.88 256.51,154.24 255.78,147.62"/>
    </edge>
    <edge id=":J17_2" function="internal">
        <lane id=":J17_2_0" index="0" speed="7.94" length="14.38" shape="258.97,147.53 259.46,152.71 260.62,156.36 262.45,158.47 264.94,159.05"/>
    </edge>
    <edge id=":J17_3" function="internal">
        <lane id=":J17_3_0" index="0" speed="7.58" length="21.55" shape="258.97,147.53 258.47,154.66 256.48,157.70 253.00,156.65 248.03,151.52"/>
    </edge>
    <edge id=":J17_4" function="internal">
        <lane id=":J17_4_0" index="0" speed="5.46" length="10.32" shape="250.54,149.52 252.92,151.98 254.58,152.48 255.53,151.03 255.78,147.62"/>
    </edge>
    <edge id=":J17_5" function="internal">
        <lane id=":J17_5_0" index="0" speed="12.01" length="17.85" shape="250.54,149.52 254.41,153.85 258.10,156.88 261.61,158.62 264.94,159.05"/>
    </edge>
    <edge id=":J18_0" function="internal">
        <lane id=":J18_0_0" index="0" speed="13.89" length="24.96" shape="172.63,104.37 168.23,107.38 162.34,111.55 156.70,115.96 153.01,119.69"/>
    </edge>
    <edge id=":J18_1" function="internal">
        <lane id=":J18_1_0" index="0" speed="6.11" length="15.05" shape="172.63,104.37 168.84,105.32 165.62,103.68 163.98,100.46 164.91,96.67"/>
    </edge>
    <edge id=":J18_2" function="internal">
        <lane id=":J18_2_0" index="0" speed="5.81" length="13.40" shape="167.56,98.47 165.10,102.57 164.83,104.47 166.73,104.20 170.82,101.73"/>
    </edge>
    <edge id=":J18_3" function="internal">
        <lane id=":J18_3_0" index="0" speed="13.89" length="25.72" shape="167.56,98.47 153.01,119.69"/>
    </edge>
    <edge id=":J18_4" function="internal">
        <lane id=":J18_4_0" index="0" speed="13.89" length="25.70" shape="150.38,117.86 164.91,96.67"/>
    </edge>
    <edge id=":J18_5" function="internal">
        <lane id=":J18_5_0" index="0" speed="13.89" length="4.00" shape="150.38,117.86 153.19,115.02"/>
    </edge>
    <edge id=":J18_6" function="internal">
        <lane id=":J18_6_0" index="0" speed="13.89" length="22.10" shape="153.19,115.02 154.20,114.01 160.13,109.32 166.29,104.87 170.82,101.73"/>
    </edge>
    <edge id=":J19_0" function="internal">
        <lane id=":J19_0_0" index="0" speed="7.61" length="13.33" shape="35.17,-220.03 32.32,-219.82 30.16,-218.22 28.68,-215.23 27.88,-210.85"/>
    </edge>
    <edge id=":J19_1" function="internal">
        <lane id=":J19_1_0" index="0" speed="12.83" length="17.45" shape="35.17,-220.03 31.44,-220.07 27.56,-219.05 23.54,-216.99 19.39,-213.88"/>
    </edge>
    <edge id=":J19_2" function="internal">
        <lane id=":J19_2_0" index="0" speed="7.62" length="15.26" shape="35.17,-220.03 31.00,-221.29 28.60,-223.53 27.97,-226.75 29.10,-230.95"/>
    </edge>
    <edge id=":J19_3" function="internal">
        <lane id=":J19_3_0" index="0" speed="6.03" length="9.07" shape="32.04,-229.69 31.37,-227.19 31.75,-225.28 33.17,-223.95 35.65,-223.20"/>
    </edge>
    <edge id=":J19_4" function="internal">
        <lane id=":J19_4_0" index="0" speed="13.89" length="19.34" shape="32.04,-229.69 30.62,-225.51 29.39,-220.42 28.45,-215.25 27.88,-210.85"/>
    </edge>
    <edge id=":J19_5" function="internal">
        <lane id=":J19_5_0" index="0" speed="13.89" length="3.59" shape="32.04,-229.69 30.25,-226.58"/>
    </edge>
    <edge id=":J19_12" function="internal">
        <lane id=":J19_12_0" index="0" speed="13.89" length="16.76" shape="30.25,-226.58 29.77,-225.74 26.40,-221.28 22.69,-217.08 19.39,-213.88"/>
    </edge>
    <edge id=":J19_6" function="internal">
        <lane id=":J19_6_0" index="0" speed="13.89" length="18.91" shape="17.30,-216.30 20.47,-219.32 23.88,-223.13 26.96,-227.18 29.10,-230.95"/>
    </edge>
    <edge id=":J19_7" function="internal">
        <lane id=":J19_7_0" index="0" speed="13.78" length="20.20" shape="17.30,-216.30 22.04,-219.82 26.67,-222.14 31.21,-223.27 35.65,-223.20"/>
    </edge>
    <edge id=":J19_8" function="internal">
        <lane id=":J19_8_0" index="0" speed="7.43" length="19.50" shape="17.30,-216.30 22.46,-219.83 25.95,-220.10 27.76,-217.11 27.88,-210.85"/>
    </edge>
    <edge id=":J19_9" function="internal">
        <lane id=":J19_9_0" index="0" speed="5.47" length="9.79" shape="24.70,-211.14 24.63,-214.28 23.73,-215.78 21.98,-215.65 19.39,-213.88"/>
    </edge>
    <edge id=":J19_10" function="internal">
        <lane id=":J19_10_0" index="0" speed="13.89" length="20.34" shape="24.70,-211.14 25.30,-215.69 26.33,-221.19 27.64,-226.62 29.10,-230.95"/>
    </edge>
    <edge id=":J19_11" function="internal">
        <lane id=":J19_11_0" index="0" speed="8.65" length="6.83" shape="24.70,-211.14 25.93,-215.41 27.22,-217.42"/>
    </edge>
    <edge id=":J19_13" function="internal">
        <lane id=":J19_13_0" index="0" speed="8.65" length="10.71" shape="27.22,-217.42 28.53,-219.48 31.95,-222.39 35.65,-223.20"/>
    </edge>
    <edge id=":J2_0" function="internal">
        <lane id=":J2_0_0" index="0" speed="5.46" length="10.31" shape="87.83,34.98 86.36,31.90 84.94,30.89 83.57,31.97 82.25,35.12"/>
    </edge>
    <edge id=":J2_1" function="internal">
        <lane id=":J2_1_0" index="0" speed="13.89" length="25.42" shape="87.83,34.98 85.70,30.04 82.48,23.45 79.03,16.98 76.26,12.38"/>
    </edge>
    <edge id=":J2_2" function="internal">
        <lane id=":J2_2_0" index="0" speed="13.89" length="26.16" shape="87.83,34.98 86.51,29.65 85.32,22.15 84.56,14.59 84.52,9.12"/>
    </edge>